Circuit: * D:\projekte\musik matrix\analog kram\2. audio input.asc

Direct Newton iteration failed to find .op point.  (Use ".option noopiter" to skip.)
Starting Gmin stepping
Gmin = 10
Gmin = 1.07374
Gmin = 0.115292
Gmin = 0.0123794
Gmin = 0.00132923
Gmin = 0.000142725
Gmin = 1.5325e-005
Gmin = 1.6455e-006
Gmin = 1.76685e-007
Gmin = 1.89714e-008
Gmin = 2.03704e-009
Gmin = 2.18725e-010
Gmin = 2.34854e-011
Gmin = 2.52173e-012
Gmin = 2.70769e-013
Gmin = 0
Gmin stepping succeeded in finding the operating point.


Date: Thu Dec 03 18:31:09 2015
Total elapsed time: 2.254 seconds.

tnom = 27
temp = 27
method = modified trap
totiter = 105516
traniter = 105094
tranpoints = 41872
accept = 28834
rejected = 13038
matrix size = 39
fillins = 49
solver = Normal
Thread vector: 19.8/13.6[2] 7.0/5.2[2] 3.1/2.9[1] 0.5/3.1[1]  2592/500
Matrix Compiler1: 4,66 KB object code size  1.6/1.0/[0.7]
Matrix Compiler2: 4,24 KB object code size  0.9/1.4/[0.6]


