Circuit: * D:\projekte\musik matrix\analog kram\a weighting filter 2.asc


Date: Thu Dec 03 19:04:37 2015
Total elapsed time: 0.035 seconds.

tnom = 27
temp = 27
method = trap
totiter = 0
traniter = 0
tranpoints = 0
accept = 0
rejected = 0
matrix size = 8
fillins = 0
solver = Normal

