Circuit: * D:\projekte\musik matrix\analog kram\a weighting filter.asc

R2: both pins shorted together -- ignoring.
WARNING: Less than two connections to node OUTPUT.  This node is used by R8.
Direct Newton iteration for .op point succeeded.

Date: Thu Dec 03 19:05:00 2015
Total elapsed time: 0.304 seconds.

tnom = 27
temp = 27
method = trap
totiter = 10
traniter = 0
tranpoints = 0
accept = 0
rejected = 0
matrix size = 15
fillins = 1
solver = Normal
Matrix Compiler1:      43 opcodes
Matrix Compiler2: 1,22 KB object code size

