Circuit: * D:\projekte\musik matrix\analog kram\mikrofon input 2.asc

Direct Newton iteration failed to find .op point.  (Use ".option noopiter" to skip.)
Starting Gmin stepping
Gmin = 10
Gmin = 1.07374
Gmin = 0.115292
Gmin = 0.0123794
Gmin = 0.00132923
Gmin = 0.000142725
Gmin = 1.5325e-005
Gmin = 1.6455e-006
vernier = 0.5
Gmin = 3.40827e-007
vernier = 0.666667
vernier = 0.888888
Gmin = 7.76686e-008
vernier = 1
Gmin = 9.33136e-009
Gmin = 1.00195e-009
Gmin = 1.07583e-010
Gmin = 1.15517e-011
Gmin = 1.24035e-012
Gmin = 1.33182e-013
Gmin = 0
Gmin stepping succeeded in finding the operating point.


Date: Mon May 16 17:50:10 2016
Total elapsed time: 0.408 seconds.

tnom = 27
temp = 27
method = modified trap
totiter = 19829
traniter = 19248
tranpoints = 6888
accept = 4816
rejected = 2072
matrix size = 55
fillins = 71
solver = Normal
Thread vector: 24.6/9.9[3] 4.3/2.1[3] 2.2/1.5[3] 0.4/0.7[1]  2592/500
Matrix Compiler1: 6.68 KB object code size  1.3/0.6/[0.4]
Matrix Compiler2: off  [0.6]/0.9/0.7


