Circuit: * D:\projekte\musik matrix\analog kram\mikrofon amp.asc

Direct Newton iteration for .op point succeeded.

Date: Thu Dec 03 18:29:55 2015
Total elapsed time: 0.138 seconds.

tnom = 27
temp = 27
method = trap
totiter = 3
traniter = 0
tranpoints = 0
accept = 0
rejected = 0
matrix size = 12
fillins = 4
solver = Normal
Matrix Compiler1:      42 opcodes
Matrix Compiler2: 1,10 KB object code size

